9 
Angstrom 
Dy    0.000000 0.000000 0.000000 
O    1.248128  1.33589  -1.3235
O    -1.581462  1.33589  -1.3235
O    -1.581462  -1.33589  -1.3235
O    1.248128  -1.33589  -1.3235
O    -0.117851  1.882971  1.3235
O    -2.118673  -0.117851  1.3235
N    -0.117851  -2.118673  1.3235
N    1.882971  -0.117851  1.3235
}